!-Generator IDFEditor 1.51
!-Option SortedOrder

!-NOTE: All comments with '!-' are ignored by the IDFEditor and are generated automatically.
!-      Use '!' comments if they need to be retained when using the IDFEditor.


!-   ===========  ALL OBJECTS IN CLASS: VERSION ===========

Version,
    9.4;                     !- Version Identifier


!-   ===========  ALL OBJECTS IN CLASS: SIMULATIONCONTROL ===========

SimulationControl,
    No,                      !- Do Zone Sizing Calculation
    No,                      !- Do System Sizing Calculation
    No,                      !- Do Plant Sizing Calculation
    No,                      !- Run Simulation for Sizing Periods
    Yes,                     !- Run Simulation for Weather File Run Periods
    No,                      !- Do HVAC Sizing Simulation for Sizing Periods
    1;                       !- Maximum Number of HVAC Sizing Simulation Passes


!-   ===========  ALL OBJECTS IN CLASS: BUILDING ===========

Building,
    ShoeboxBaseModel.idf,    !- Name
    0,                       !- North Axis {deg}
    City,                    !- Terrain
    0.001,                   !- Loads Convergence Tolerance Value {W}
    0.01,                    !- Temperature Convergence Tolerance Value {deltaC}
    FullInteriorAndExteriorWithReflections,  !- Solar Distribution
    100,                     !- Maximum Number of Warmup Days
    6;                       !- Minimum Number of Warmup Days


!-   ===========  ALL OBJECTS IN CLASS: SHADOWCALCULATION ===========

ShadowCalculation,
    PolygonClipping,         !- Shading Calculation Method
    Periodic,                !- Shading Calculation Update Frequency Method
    7,                       !- Shading Calculation Update Frequency
    15000,                   !- Maximum Figures in Shadow Overlap Calculations
    SutherlandHodgman,       !- Polygon Clipping Algorithm
    512,                     !- Pixel Counting Resolution
    SimpleSkyDiffuseModeling,!- Sky Diffuse Modeling Algorithm
    No,                      !- Output External Shading Calculation Results
    No,                      !- Disable Self-Shading Within Shading Zone Groups
    No;                      !- Disable Self-Shading From Shading Zone Groups to Other Zones


!-   ===========  ALL OBJECTS IN CLASS: SURFACECONVECTIONALGORITHM:INSIDE ===========

SurfaceConvectionAlgorithm:Inside,
    TARP;                    !- Algorithm


!-   ===========  ALL OBJECTS IN CLASS: SURFACECONVECTIONALGORITHM:OUTSIDE ===========

SurfaceConvectionAlgorithm:Outside,
    TARP;                    !- Algorithm


!-   ===========  ALL OBJECTS IN CLASS: HEATBALANCEALGORITHM ===========

HeatBalanceAlgorithm,
    ConductionTransferFunction,  !- Algorithm
    200,                     !- Surface Temperature Upper Limit {C}
    0.1,                     !- Minimum Surface Convection Heat Transfer Coefficient Value {W/m2-K}
    1000;                    !- Maximum Surface Convection Heat Transfer Coefficient Value {W/m2-K}


!-   ===========  ALL OBJECTS IN CLASS: ZONEAIRHEATBALANCEALGORITHM ===========

ZoneAirHeatBalanceAlgorithm,
    ThirdOrderBackwardDifference;  !- Algorithm


!-   ===========  ALL OBJECTS IN CLASS: ZONECAPACITANCEMULTIPLIER:RESEARCHSPECIAL ===========

ZoneCapacitanceMultiplier:ResearchSpecial,
    Multipliear,             !- Name
    Shoebox,                 !- Zone or ZoneList Name
    10,                      !- Temperature Capacity Multiplier
    1,                       !- Humidity Capacity Multiplier
    1,                       !- Carbon Dioxide Capacity Multiplier
    1;                       !- Generic Contaminant Capacity Multiplier


!-   ===========  ALL OBJECTS IN CLASS: TIMESTEP ===========

Timestep,
    6;                       !- Number of Timesteps per Hour


!-   ===========  ALL OBJECTS IN CLASS: RUNPERIOD ===========

RunPeriod,
    customRun,               !- Name
    1,                       !- Begin Month
    1,                       !- Begin Day of Month
    ,                        !- Begin Year
    12,                      !- End Month
    31,                      !- End Day of Month
    ,                        !- End Year
    Monday,                  !- Day of Week for Start Day
    No,                      !- Use Weather File Holidays and Special Days
    No,                      !- Use Weather File Daylight Saving Period
    No,                      !- Apply Weekend Holiday Rule
    Yes,                     !- Use Weather File Rain Indicators
    Yes;                     !- Use Weather File Snow Indicators


!-   ===========  ALL OBJECTS IN CLASS: SITE:GROUNDREFLECTANCE ===========

Site:GroundReflectance,
    0.2,                     !- January Ground Reflectance {dimensionless}
    0.2,                     !- February Ground Reflectance {dimensionless}
    0.2,                     !- March Ground Reflectance {dimensionless}
    0.2,                     !- April Ground Reflectance {dimensionless}
    0.2,                     !- May Ground Reflectance {dimensionless}
    0.2,                     !- June Ground Reflectance {dimensionless}
    0.2,                     !- July Ground Reflectance {dimensionless}
    0.2,                     !- August Ground Reflectance {dimensionless}
    0.2,                     !- September Ground Reflectance {dimensionless}
    0.2,                     !- October Ground Reflectance {dimensionless}
    0.2,                     !- November Ground Reflectance {dimensionless}
    0.2;                     !- December Ground Reflectance {dimensionless}


!-   ===========  ALL OBJECTS IN CLASS: SITE:GROUNDREFLECTANCE:SNOWMODIFIER ===========

Site:GroundReflectance:SnowModifier,
    1,                       !- Ground Reflected Solar Modifier
    1;                       !- Daylighting Ground Reflected Solar Modifier


!-   ===========  ALL OBJECTS IN CLASS: SCHEDULETYPELIMITS ===========

ScheduleTypeLimits,
    Any number,              !- Name
    ,                        !- Lower Limit Value
    ,                        !- Upper Limit Value
    Continuous,              !- Numeric Type
    Dimensionless;           !- Unit Type


!-   ===========  ALL OBJECTS IN CLASS: SCHEDULE:DAY:HOURLY ===========

Schedule:Day:Hourly,
    DailySchedule,           !- Name
    Any number,              !- Schedule Type Limits Name
    0,                       !- Hour 1
    0,                       !- Hour 2
    0,                       !- Hour 3
    0,                       !- Hour 4
    0,                       !- Hour 5
    0,                       !- Hour 6
    0.5,                     !- Hour 7
    0.5,                     !- Hour 8
    1,                       !- Hour 9
    1,                       !- Hour 10
    1,                       !- Hour 11
    1,                       !- Hour 12
    1,                       !- Hour 13
    1,                       !- Hour 14
    1,                       !- Hour 15
    1,                       !- Hour 16
    1,                       !- Hour 17
    1,                       !- Hour 18
    1,                       !- Hour 19
    0.5,                     !- Hour 20
    0.5,                     !- Hour 21
    0,                       !- Hour 22
    0,                       !- Hour 23
    0;                       !- Hour 24


!-   ===========  ALL OBJECTS IN CLASS: SCHEDULE:WEEK:DAILY ===========

Schedule:Week:Daily,
    DailyScheduleWeek,       !- Name
    DailySchedule,           !- Sunday Schedule:Day Name
    DailySchedule,           !- Monday Schedule:Day Name
    DailySchedule,           !- Tuesday Schedule:Day Name
    DailySchedule,           !- Wednesday Schedule:Day Name
    DailySchedule,           !- Thursday Schedule:Day Name
    DailySchedule,           !- Friday Schedule:Day Name
    DailySchedule,           !- Saturday Schedule:Day Name
    DailySchedule,           !- Holiday Schedule:Day Name
    DailySchedule,           !- SummerDesignDay Schedule:Day Name
    DailySchedule,           !- WinterDesignDay Schedule:Day Name
    DailySchedule,           !- CustomDay1 Schedule:Day Name
    DailySchedule;           !- CustomDay2 Schedule:Day Name


!-   ===========  ALL OBJECTS IN CLASS: SCHEDULE:YEAR ===========

Schedule:Year,
    DailyScheduleYear,       !- Name
    Any number,              !- Schedule Type Limits Name
    DailyScheduleWeek,       !- Schedule:Week Name 1
    1,                       !- Start Month 1
    1,                       !- Start Day 1
    12,                      !- End Month 1
    31;                      !- End Day 1


!-   ===========  ALL OBJECTS IN CLASS: SCHEDULE:COMPACT ===========

Schedule:Compact,
    Heating,                 !- Name
    Any number,              !- Schedule Type Limits Name
    Through: 04/15,          !- Field 1
    For: AllDays,            !- Field 2
    Until: 07:00,            !- Field 3
     20,                     !- Field 4
    Until: 20:00,            !- Field 5
     20,                     !- Field 6
    Until: 24:00,            !- Field 7
     20,                     !- Field 8
    Through: 10/15,          !- Field 9
    For: AllDays,            !- Field 10
    Until: 07:00,            !- Field 11
     20,                     !- Field 12
    Until: 20:00,            !- Field 13
     20,                     !- Field 14
    Until: 24:00,            !- Field 15
     20,                     !- Field 16
    Through: 12/31,          !- Field 17
    For: AllDays,            !- Field 18
    Until: 07:00,            !- Field 19
     20,                     !- Field 20
    Until: 20:00,            !- Field 21
     20,                     !- Field 22
    Until: 24:00,            !- Field 23
     20;                     !- Field 24

Schedule:Compact,
    Always 1,                !- Name
    Any number,              !- Schedule Type Limits Name
    Through: 12/31,          !- Field 1
    For: AllDays,            !- Field 2
    Until: 24:00,            !- Field 3
    1;                       !- Field 4

Schedule:Compact,
    Always 0,                !- Name
    Any number,              !- Schedule Type Limits Name
    Through: 12/31,          !- Field 1
    For: AllDays,            !- Field 2
    Until: 24:00,            !- Field 3
    0;                       !- Field 4

Schedule:Compact,
    Clothing,                !- Name
    Any number,              !- Schedule Type Limits Name
    Through: 12/31,          !- Field 1
    For: AllDays,            !- Field 2
    Until: 24:00,            !- Field 3
    1;                       !- Field 4

Schedule:Compact,
    Activity,                !- Name
    Any number,              !- Schedule Type Limits Name
    Through: 12/31,          !- Field 1
    For: AllDays,            !- Field 2
    Until: 24:00,            !- Field 3
    108;                     !- Field 4

Schedule:Compact,
    Always 4,                !- Name
    Any number,              !- Schedule Type Limits Name
    Through: 12/31,          !- Field 1
    For: AllDays,            !- Field 2
    Until: 24:00,            !- Field 3
    4;                       !- Field 4

Schedule:Compact,
    SummerShading,           !- Name
    Any Number,              !- Schedule Type Limits Name
    Through 05/31,           !- Field 1
    For: AllDays,            !- Field 2
    Until: 24:00,            !- Field 3
    0,                       !- Field 4
    Through 08/31,           !- Field 5
    For: AllDays,            !- Field 6
    Until: 24:00,            !- Field 7
    1,                       !- Field 8
    Through 12/31,           !- Field 9
    For: AllDays,            !- Field 10
    Until: 24:00,            !- Field 11
    0;                       !- Field 12

Schedule:Compact,
    Cooling,                 !- Name
    Any number,              !- Schedule Type Limits Name
    Through: 06/01,          !- Field 1
    For: AllDays,            !- Field 2
    Until: 07:00,            !- Field 3
     26,                     !- Field 4
    Until: 20:00,            !- Field 5
     26,                     !- Field 6
    Until: 24:00,            !- Field 7
     26,                     !- Field 8
    Through: 08/31,          !- Field 9
    For: AllDays,            !- Field 10
    Until: 07:00,            !- Field 11
     26,                     !- Field 12
    Until: 20:00,            !- Field 13
     26,                     !- Field 14
    Until: 24:00,            !- Field 15
     26,                     !- Field 16
    Through: 12/31,          !- Field 17
    For: AllDays,            !- Field 18
    Until: 07:00,            !- Field 19
     26,                     !- Field 20
    Until: 20:00,            !- Field 21
     26,                     !- Field 22
    Until: 24:00,            !- Field 23
     26;                     !- Field 24


!-   ===========  ALL OBJECTS IN CLASS: MATERIAL ===========

Material,
    Timber,                  !- Name
    MediumRough,             !- Roughness
    0.1,                     !- Thickness {m}
    0.13,                    !- Conductivity {W/m-K}
    399,                     !- Density {kg/m3}
    1880,                    !- Specific Heat {J/kg-K}
    0.9,                     !- Thermal Absorptance
    0.3,                     !- Solar Absorptance
    0.3;                     !- Visible Absorptance

Material,
    Clay block,              !- Name
    MediumRough,             !- Roughness
    0.1,                     !- Thickness {m}
    0.25,                    !- Conductivity {W/m-K}
    893,                     !- Density {kg/m3}
    840,                     !- Specific Heat {J/kg-K}
    0.9,                     !- Thermal Absorptance
    0.3,                     !- Solar Absorptance
    0.3;                     !- Visible Absorptance

Material,
    Concrete,                !- Name
    MediumRough,             !- Roughness
    0.1,                     !- Thickness {m}
    0.37,                    !- Conductivity {W/m-K}
    1190,                    !- Density {kg/m3}
    840,                     !- Specific Heat {J/kg-K}
    0.9,                     !- Thermal Absorptance
    0.3,                     !- Solar Absorptance
    0.3;                     !- Visible Absorptance

Material,
    XPS (low),               !- Name
    MediumRough,             !- Roughness
    0.1,                     !- Thickness {m}
    0.035,                   !- Conductivity {W/m-K}
    30,                      !- Density {kg/m3}
    1450,                    !- Specific Heat {J/kg-K}
    0.9,                     !- Thermal Absorptance
    0.3,                     !- Solar Absorptance
    0.3;                     !- Visible Absorptance

Material,
    Wood fiber (low),        !- Name
    MediumRough,             !- Roughness
    0.1,                     !- Thickness {m}
    0.045,                   !- Conductivity {W/m-K}
    160,                     !- Density {kg/m3}
    2000,                    !- Specific Heat {J/kg-K}
    0.9,                     !- Thermal Absorptance
    0.3,                     !- Solar Absorptance
    0.3;                     !- Visible Absorptance

Material,
    XPS (high),              !- Name
    MediumRough,             !- Roughness
    0.1,                     !- Thickness {m}
    0.035,                   !- Conductivity {W/m-K}
    30,                      !- Density {kg/m3}
    1450,                    !- Specific Heat {J/kg-K}
    0.9,                     !- Thermal Absorptance
    0.3,                     !- Solar Absorptance
    0.3;                     !- Visible Absorptance

Material,
    Wood fiber (high),       !- Name
    MediumRough,             !- Roughness
    0.1,                     !- Thickness {m}
    0.045,                   !- Conductivity {W/m-K}
    160,                     !- Density {kg/m3}
    2000,                    !- Specific Heat {J/kg-K}
    0.9,                     !- Thermal Absorptance
    0.3,                     !- Solar Absorptance
    0.3;                     !- Visible Absorptance


!-   ===========  ALL OBJECTS IN CLASS: WINDOWMATERIAL:GLAZING ===========

WindowMaterial:Glazing,
    Clear_Single,            !- Name
    Spectral,                !- Optical Data Type
    Clear_Single_SpecDat,    !- Window Glass Spectral Data Set Name
    0.004,                   !- Thickness {m}
    ,                        !- Solar Transmittance at Normal Incidence
    ,                        !- Front Side Solar Reflectance at Normal Incidence
    ,                        !- Back Side Solar Reflectance at Normal Incidence
    ,                        !- Visible Transmittance at Normal Incidence
    ,                        !- Front Side Visible Reflectance at Normal Incidence
    ,                        !- Back Side Visible Reflectance at Normal Incidence
    0,                       !- Infrared Transmittance at Normal Incidence
    0.837,                   !- Front Side Infrared Hemispherical Emissivity
    0.999,                   !- Back Side Infrared Hemispherical Emissivity
    1;                       !- Conductivity {W/m-K}

WindowMaterial:Glazing,
    ClearOut_DoubleHighG,    !- Name
    Spectral,                !- Optical Data Type
    Clear_DoubleHighG_SpecDat,  !- Window Glass Spectral Data Set Name
    0.004,                   !- Thickness {m}
    ,                        !- Solar Transmittance at Normal Incidence
    ,                        !- Front Side Solar Reflectance at Normal Incidence
    ,                        !- Back Side Solar Reflectance at Normal Incidence
    ,                        !- Visible Transmittance at Normal Incidence
    ,                        !- Front Side Visible Reflectance at Normal Incidence
    ,                        !- Back Side Visible Reflectance at Normal Incidence
    0,                       !- Infrared Transmittance at Normal Incidence
    0.837,                   !- Front Side Infrared Hemispherical Emissivity
    0.837,                   !- Back Side Infrared Hemispherical Emissivity
    1;                       !- Conductivity {W/m-K}

WindowMaterial:Glazing,
    ClearOut_Lowe_DoubleLowG,!- Name
    Spectral,                !- Optical Data Type
    ClearOut_Lowe_DoubleLowG_SpecDat,  !- Window Glass Spectral Data Set Name
    0.004,                   !- Thickness {m}
    ,                        !- Solar Transmittance at Normal Incidence
    ,                        !- Front Side Solar Reflectance at Normal Incidence
    ,                        !- Back Side Solar Reflectance at Normal Incidence
    ,                        !- Visible Transmittance at Normal Incidence
    ,                        !- Front Side Visible Reflectance at Normal Incidence
    ,                        !- Back Side Visible Reflectance at Normal Incidence
    0,                       !- Infrared Transmittance at Normal Incidence
    0.837,                   !- Front Side Infrared Hemispherical Emissivity
    0.037,                   !- Back Side Infrared Hemispherical Emissivity
    1;                       !- Conductivity {W/m-K}

WindowMaterial:Glazing,
    ClearIn_Lowe_DoubleLowG, !- Name
    Spectral,                !- Optical Data Type
    ClearIn_Lowe_DoubleLowG_SpecDat,  !- Window Glass Spectral Data Set Name
    0.004,                   !- Thickness {m}
    ,                        !- Solar Transmittance at Normal Incidence
    ,                        !- Front Side Solar Reflectance at Normal Incidence
    ,                        !- Back Side Solar Reflectance at Normal Incidence
    ,                        !- Visible Transmittance at Normal Incidence
    ,                        !- Front Side Visible Reflectance at Normal Incidence
    ,                        !- Back Side Visible Reflectance at Normal Incidence
    0,                       !- Infrared Transmittance at Normal Incidence
    0.037,                   !- Front Side Infrared Hemispherical Emissivity
    0.999,                   !- Back Side Infrared Hemispherical Emissivity
    1;                       !- Conductivity {W/m-K}

WindowMaterial:Glazing,
    ClearOut_TripleHighG,    !- Name
    Spectral,                !- Optical Data Type
    ClearOut_TripleHighG_SpecDat,  !- Window Glass Spectral Data Set Name
    0.004,                   !- Thickness {m}
    ,                        !- Solar Transmittance at Normal Incidence
    ,                        !- Front Side Solar Reflectance at Normal Incidence
    ,                        !- Back Side Solar Reflectance at Normal Incidence
    ,                        !- Visible Transmittance at Normal Incidence
    ,                        !- Front Side Visible Reflectance at Normal Incidence
    ,                        !- Back Side Visible Reflectance at Normal Incidence
    0,                       !- Infrared Transmittance at Normal Incidence
    0.837,                   !- Front Side Infrared Hemispherical Emissivity
    0.837,                   !- Back Side Infrared Hemispherical Emissivity
    1;                       !- Conductivity {W/m-K}

WindowMaterial:Glazing,
    ClearMid_TripleHighG,    !- Name
    Spectral,                !- Optical Data Type
    Clear_TripleHighG_SpecDat,  !- Window Glass Spectral Data Set Name
    0.004,                   !- Thickness {m}
    ,                        !- Solar Transmittance at Normal Incidence
    ,                        !- Front Side Solar Reflectance at Normal Incidence
    ,                        !- Back Side Solar Reflectance at Normal Incidence
    ,                        !- Visible Transmittance at Normal Incidence
    ,                        !- Front Side Visible Reflectance at Normal Incidence
    ,                        !- Back Side Visible Reflectance at Normal Incidence
    0,                       !- Infrared Transmittance at Normal Incidence
    0.837,                   !- Front Side Infrared Hemispherical Emissivity
    0.837,                   !- Back Side Infrared Hemispherical Emissivity
    1;                       !- Conductivity {W/m-K}

WindowMaterial:Glazing,
    ClearMid_Lowe_TripleLowG,!- Name
    Spectral,                !- Optical Data Type
    ClearMid_Lowe_TripleLowG_SpecDat,  !- Window Glass Spectral Data Set Name
    0.004,                   !- Thickness {m}
    ,                        !- Solar Transmittance at Normal Incidence
    ,                        !- Front Side Solar Reflectance at Normal Incidence
    ,                        !- Back Side Solar Reflectance at Normal Incidence
    ,                        !- Visible Transmittance at Normal Incidence
    ,                        !- Front Side Visible Reflectance at Normal Incidence
    ,                        !- Back Side Visible Reflectance at Normal Incidence
    0,                       !- Infrared Transmittance at Normal Incidence
    0.837,                   !- Front Side Infrared Hemispherical Emissivity
    0.837,                   !- Back Side Infrared Hemispherical Emissivity
    1;                       !- Conductivity {W/m-K}

WindowMaterial:Glazing,
    ClearOut_Lowe_TripleLowG,!- Name
    Spectral,                !- Optical Data Type
    ClearOut_Lowe_TripleLowG_SpecDat,  !- Window Glass Spectral Data Set Name
    0.004,                   !- Thickness {m}
    ,                        !- Solar Transmittance at Normal Incidence
    ,                        !- Front Side Solar Reflectance at Normal Incidence
    ,                        !- Back Side Solar Reflectance at Normal Incidence
    ,                        !- Visible Transmittance at Normal Incidence
    ,                        !- Front Side Visible Reflectance at Normal Incidence
    ,                        !- Back Side Visible Reflectance at Normal Incidence
    0,                       !- Infrared Transmittance at Normal Incidence
    0.837,                   !- Front Side Infrared Hemispherical Emissivity
    0.037,                   !- Back Side Infrared Hemispherical Emissivity
    1;                       !- Conductivity {W/m-K}

WindowMaterial:Glazing,
    ClearIn_Lowe_TripleLowG, !- Name
    Spectral,                !- Optical Data Type
    ClearIn_Lowe_TripleLowG_SpecDat,  !- Window Glass Spectral Data Set Name
    0.004,                   !- Thickness {m}
    ,                        !- Solar Transmittance at Normal Incidence
    ,                        !- Front Side Solar Reflectance at Normal Incidence
    ,                        !- Back Side Solar Reflectance at Normal Incidence
    ,                        !- Visible Transmittance at Normal Incidence
    ,                        !- Front Side Visible Reflectance at Normal Incidence
    ,                        !- Back Side Visible Reflectance at Normal Incidence
    0,                       !- Infrared Transmittance at Normal Incidence
    0.037,                   !- Front Side Infrared Hemispherical Emissivity
    0.999,                   !- Back Side Infrared Hemispherical Emissivity
    1;                       !- Conductivity {W/m-K}

WindowMaterial:Glazing,
    ClearIn_DoubleHighG,     !- Name
    Spectral,                !- Optical Data Type
    Clear_DoubleHighG_SpecDat,  !- Window Glass Spectral Data Set Name
    0.004,                   !- Thickness {m}
    ,                        !- Solar Transmittance at Normal Incidence
    ,                        !- Front Side Solar Reflectance at Normal Incidence
    ,                        !- Back Side Solar Reflectance at Normal Incidence
    ,                        !- Visible Transmittance at Normal Incidence
    ,                        !- Front Side Visible Reflectance at Normal Incidence
    ,                        !- Back Side Visible Reflectance at Normal Incidence
    0,                       !- Infrared Transmittance at Normal Incidence
    0.837,                   !- Front Side Infrared Hemispherical Emissivity
    0.999,                   !- Back Side Infrared Hemispherical Emissivity
    1;                       !- Conductivity {W/m-K}

WindowMaterial:Glazing,
    ClearIn_TripleHighG,     !- Name
    Spectral,                !- Optical Data Type
    Clear_TripleHighG_SpecDat,  !- Window Glass Spectral Data Set Name
    0.004,                   !- Thickness {m}
    ,                        !- Solar Transmittance at Normal Incidence
    ,                        !- Front Side Solar Reflectance at Normal Incidence
    ,                        !- Back Side Solar Reflectance at Normal Incidence
    ,                        !- Visible Transmittance at Normal Incidence
    ,                        !- Front Side Visible Reflectance at Normal Incidence
    ,                        !- Back Side Visible Reflectance at Normal Incidence
    0,                       !- Infrared Transmittance at Normal Incidence
    0.837,                   !- Front Side Infrared Hemispherical Emissivity
    0.999,                   !- Back Side Infrared Hemispherical Emissivity
    1;                       !- Conductivity {W/m-K}

WindowMaterial:Glazing,
    CLEAR 3MM,               !- Name
    SpectralAverage,         !- Optical Data Type
    ,                        !- Window Glass Spectral Data Set Name
    0.003,                   !- Thickness {m}
    0.837,                   !- Solar Transmittance at Normal Incidence
    0.075,                   !- Front Side Solar Reflectance at Normal Incidence
    0.075,                   !- Back Side Solar Reflectance at Normal Incidence
    0.898,                   !- Visible Transmittance at Normal Incidence
    0.081,                   !- Front Side Visible Reflectance at Normal Incidence
    0.081,                   !- Back Side Visible Reflectance at Normal Incidence
    0.0,                     !- Infrared Transmittance at Normal Incidence
    0.84,                    !- Front Side Infrared Hemispherical Emissivity
    0.84,                    !- Back Side Infrared Hemispherical Emissivity
    0.9;                     !- Conductivity {W/m-K}


!-   ===========  ALL OBJECTS IN CLASS: WINDOWMATERIAL:GAS ===========

WindowMaterial:Gas,
    Argon,                   !- Name
    Argon,                   !- Gas Type
    0.0127;                  !- Thickness {m}

WindowMaterial:Gas,
    AIR 13MM,                !- Name
    Air,                     !- Gas Type
    0.0127;                  !- Thickness {m}


!-   ===========  ALL OBJECTS IN CLASS: WINDOWMATERIAL:SHADE ===========

WindowMaterial:Shade,
    HIGH REFLECT - LOW TRANS SHADE,  !- Name
    0.1,                     !- Solar Transmittance {dimensionless}
    0.8,                     !- Solar Reflectance {dimensionless}
    0.1,                     !- Visible Transmittance {dimensionless}
    0.8,                     !- Visible Reflectance {dimensionless}
    0.9,                     !- Infrared Hemispherical Emissivity {dimensionless}
    0.0,                     !- Infrared Transmittance {dimensionless}
    0.005,                   !- Thickness {m}
    0.1,                     !- Conductivity {W/m-K}
    0.05,                    !- Shade to Glass Distance {m}
    0.5,                     !- Top Opening Multiplier
    0.5,                     !- Bottom Opening Multiplier
    0.5,                     !- Left-Side Opening Multiplier
    0.5,                     !- Right-Side Opening Multiplier
    0.0;                     !- Airflow Permeability {dimensionless}


!-   ===========  ALL OBJECTS IN CLASS: MATERIALPROPERTY:GLAZINGSPECTRALDATA ===========

MaterialProperty:GlazingSpectralData,
    Clear_Single_SpecDat,    !- Name
    0.28,                    !- Wavelength 1 {micron}
    0.0062,                  !- Transmittance 1
    0.0586,                  !- Front Reflectance 1
    0.0586,                  !- Back Reflectance 1
    0.285,                   !- Wavelength 2 {micron}
    0.0044,                  !- Transmittance 2
    0.0562,                  !- Front Reflectance 2
    0.0562,                  !- Back Reflectance 2
    0.29,                    !- Wavelength 3 {micron}
    0.0029,                  !- Transmittance 3
    0.0544,                  !- Front Reflectance 3